CM No comments specified
CE
GW 1 1 0.107 0.000 0.187 0.105 0.018 0.187 0.0019621831386615633
GW 1 1 0.105 0.018 0.187 0.100 0.036 0.187 0.0019621831386615633
GW 1 1 0.100 0.036 0.187 0.093 0.053 0.187 0.0019621831386615633
GW 1 1 0.093 0.053 0.187 0.082 0.068 0.187 0.0019621831386615633
GW 1 1 0.082 0.068 0.187 0.070 0.081 0.187 0.0019621831386615633
GW 1 1 0.070 0.081 0.187 0.055 0.091 0.187 0.0019621831386615633
GW 1 1 0.055 0.091 0.187 0.038 0.099 0.187 0.0019621831386615633
GW 1 1 0.038 0.099 0.187 0.021 0.105 0.187 0.0019621831386615633
GW 1 1 0.021 0.105 0.187 0.003 0.107 0.187 0.0019621831386615633
GW 1 1 0.003 0.107 0.187 -0.016 0.105 0.187 0.0019621831386615633
GW 1 1 -0.016 0.105 0.187 -0.033 0.101 0.187 0.0019621831386615633
GW 1 1 -0.033 0.101 0.187 -0.050 0.094 0.187 0.0019621831386615633
GW 1 1 -0.050 0.094 0.187 -0.066 0.084 0.187 0.0019621831386615633
GW 1 1 -0.066 0.084 0.187 -0.079 0.072 0.187 0.0019621831386615633
GW 1 1 -0.079 0.072 0.187 -0.090 0.057 0.187 0.0019621831386615633
GW 1 1 -0.090 0.057 0.187 -0.099 0.041 0.187 0.0019621831386615633
GW 1 1 -0.099 0.041 0.187 -0.104 0.023 0.187 0.0019621831386615633
GW 1 1 -0.104 0.023 0.187 -0.107 0.005 0.187 0.0019621831386615633
GW 1 1 -0.107 0.005 0.187 -0.106 -0.013 0.187 0.0019621831386615633
GW 1 1 -0.106 -0.013 0.187 -0.102 -0.031 0.187 0.0019621831386615633
GW 1 1 -0.102 -0.031 0.187 -0.095 -0.048 0.187 0.0019621831386615633
GW 1 1 -0.095 -0.048 0.187 -0.086 -0.064 0.187 0.0019621831386615633
GW 1 1 -0.086 -0.064 0.187 -0.074 -0.077 0.187 0.0019621831386615633
GW 1 1 -0.074 -0.077 0.187 -0.059 -0.089 0.187 0.0019621831386615633
GW 1 1 -0.059 -0.089 0.187 -0.043 -0.097 0.187 0.0019621831386615633
GW 1 1 -0.043 -0.097 0.187 -0.026 -0.103 0.187 0.0019621831386615633
GW 1 1 -0.026 -0.103 0.187 -0.008 -0.106 0.187 0.0019621831386615633
GW 1 1 -0.008 -0.106 0.187 0.010 -0.106 0.187 0.0019621831386615633
GW 1 1 0.010 -0.106 0.187 0.028 -0.103 0.187 0.0019621831386615633
GW 1 1 0.028 -0.103 0.187 0.046 -0.096 0.187 0.0019621831386615633
GW 1 1 0.046 -0.096 0.187 0.061 -0.087 0.187 0.0019621831386615633
GW 1 1 0.061 -0.087 0.187 0.075 -0.075 0.187 0.0019621831386615633
GW 1 1 0.075 -0.075 0.187 0.087 -0.061 0.187 0.0019621831386615633
GW 1 1 0.087 -0.061 0.187 0.096 -0.046 0.187 0.0019621831386615633
GW 1 1 0.096 -0.046 0.187 0.103 -0.028 0.187 0.0019621831386615633
GW 999 1 0.103 -0.028 0.187 0.106 -0.010 0.187 0.0019621831386615633
GW 2 1 0.107 0.000 0.000 0.105 0.018 0.000 0.0019621831386615633
GW 2 1 0.105 0.018 0.000 0.100 0.036 0.000 0.0019621831386615633
GW 2 1 0.100 0.036 0.000 0.093 0.053 0.000 0.0019621831386615633
GW 2 1 0.093 0.053 0.000 0.082 0.068 0.000 0.0019621831386615633
GW 2 1 0.082 0.068 0.000 0.070 0.081 0.000 0.0019621831386615633
GW 2 1 0.070 0.081 0.000 0.055 0.091 0.000 0.0019621831386615633
GW 2 1 0.055 0.091 0.000 0.038 0.099 0.000 0.0019621831386615633
GW 2 1 0.038 0.099 0.000 0.021 0.105 0.000 0.0019621831386615633
GW 2 1 0.021 0.105 0.000 0.003 0.107 0.000 0.0019621831386615633
GW 2 1 0.003 0.107 0.000 -0.016 0.105 0.000 0.0019621831386615633
GW 2 1 -0.016 0.105 0.000 -0.033 0.101 0.000 0.0019621831386615633
GW 2 1 -0.033 0.101 0.000 -0.050 0.094 0.000 0.0019621831386615633
GW 2 1 -0.050 0.094 0.000 -0.066 0.084 0.000 0.0019621831386615633
GW 2 1 -0.066 0.084 0.000 -0.079 0.072 0.000 0.0019621831386615633
GW 2 1 -0.079 0.072 0.000 -0.090 0.057 0.000 0.0019621831386615633
GW 2 1 -0.090 0.057 0.000 -0.099 0.041 0.000 0.0019621831386615633
GW 2 1 -0.099 0.041 0.000 -0.104 0.023 0.000 0.0019621831386615633
GW 2 1 -0.104 0.023 0.000 -0.107 0.005 0.000 0.0019621831386615633
GW 2 1 -0.107 0.005 0.000 -0.106 -0.013 0.000 0.0019621831386615633
GW 2 1 -0.106 -0.013 0.000 -0.102 -0.031 0.000 0.0019621831386615633
GW 2 1 -0.102 -0.031 0.000 -0.095 -0.048 0.000 0.0019621831386615633
GW 2 1 -0.095 -0.048 0.000 -0.086 -0.064 0.000 0.0019621831386615633
GW 2 1 -0.086 -0.064 0.000 -0.074 -0.077 0.000 0.0019621831386615633
GW 2 1 -0.074 -0.077 0.000 -0.059 -0.089 0.000 0.0019621831386615633
GW 2 1 -0.059 -0.089 0.000 -0.043 -0.097 0.000 0.0019621831386615633
GW 2 1 -0.043 -0.097 0.000 -0.026 -0.103 0.000 0.0019621831386615633
GW 2 1 -0.026 -0.103 0.000 -0.008 -0.106 0.000 0.0019621831386615633
GW 2 1 -0.008 -0.106 0.000 0.010 -0.106 0.000 0.0019621831386615633
GW 2 1 0.010 -0.106 0.000 0.028 -0.103 0.000 0.0019621831386615633
GW 2 1 0.028 -0.103 0.000 0.046 -0.096 0.000 0.0019621831386615633
GW 2 1 0.046 -0.096 0.000 0.061 -0.087 0.000 0.0019621831386615633
GW 2 1 0.061 -0.087 0.000 0.075 -0.075 0.000 0.0019621831386615633
GW 2 1 0.075 -0.075 0.000 0.087 -0.061 0.000 0.0019621831386615633
GW 2 1 0.087 -0.061 0.000 0.096 -0.046 0.000 0.0019621831386615633
GW 2 1 0.096 -0.046 0.000 0.103 -0.028 0.000 0.0019621831386615633
GW 2 1 0.103 -0.028 0.000 0.106 -0.010 0.000 0.0019621831386615633
GW 3 4 0.107 0.000 0.000 0.107 0.000 0.187 0.0019621831386615633
GW 4 4 0.106 -0.010 0.000 0.106 -0.010 0.187 0.0019621831386615633
GM 0 0 0 0 0 0 0 8.000
GE -1
GN 2 0 0 0 11.000 0.010 
EK
LD 5 0 0 0 58000000.000000 
EX 0 999 1 0 1 0
FR 0 1 0 0 144.200 0
RP 0 1 1 1000 85.00 90.00 0 0
EN