CM No comments specified
CE
GW 1 4 -2.250 0.000 0.000 -0.107 0.000 0.000 0.005
GW 999 1 -0.107 0.000 0.000 0.429 0.000 0.000 0.005
GW 1 4 0.429 0.000 0.000 2.250 0.000 0.000 0.005
GW 2 6 -2.250 -0.600 -0.600 -2.250 -0.600 0.600 0.0005
GW 2 6 -2.250 -0.400 -0.600 -2.250 -0.400 0.600 0.0005
GW 2 6 -2.250 -0.200 -0.600 -2.250 -0.200 0.600 0.0005
GW 2 6 -2.250 0.000 -0.600 -2.250 0.000 0.600 0.0005
GW 2 6 -2.250 0.200 -0.600 -2.250 0.200 0.600 0.0005
GW 2 6 -2.250 0.400 -0.600 -2.250 0.400 0.600 0.0005
GW 2 6 -2.250 0.600 -0.600 -2.250 0.600 0.600 0.0005
GW 2 6 -2.250 -0.600 -0.600 -2.250 0.600 -0.600 0.0005
GW 2 6 -2.250 -0.600 -0.400 -2.250 0.600 -0.400 0.0005
GW 2 6 -2.250 -0.600 -0.200 -2.250 0.600 -0.200 0.0005
GW 2 6 -2.250 -0.600 0.000 -2.250 0.600 0.000 0.0005
GW 2 6 -2.250 -0.600 0.200 -2.250 0.600 0.200 0.0005
GW 2 6 -2.250 -0.600 0.400 -2.250 0.600 0.400 0.0005
GW 2 6 -2.250 -0.600 0.600 -2.250 0.600 0.600 0.0005
GW 3 6 2.250 -0.600 -0.600 2.250 -0.600 0.600 0.0005
GW 3 6 2.250 -0.400 -0.600 2.250 -0.400 0.600 0.0005
GW 3 6 2.250 -0.200 -0.600 2.250 -0.200 0.600 0.0005
GW 3 6 2.250 0.000 -0.600 2.250 0.000 0.600 0.0005
GW 3 6 2.250 0.200 -0.600 2.250 0.200 0.600 0.0005
GW 3 6 2.250 0.400 -0.600 2.250 0.400 0.600 0.0005
GW 3 6 2.250 0.600 -0.600 2.250 0.600 0.600 0.0005
GW 3 6 2.250 -0.600 -0.600 2.250 0.600 -0.600 0.0005
GW 3 6 2.250 -0.600 -0.400 2.250 0.600 -0.400 0.0005
GW 3 6 2.250 -0.600 -0.200 2.250 0.600 -0.200 0.0005
GW 3 6 2.250 -0.600 0.000 2.250 0.600 0.000 0.0005
GW 3 6 2.250 -0.600 0.200 2.250 0.600 0.200 0.0005
GW 3 6 2.250 -0.600 0.400 2.250 0.600 0.400 0.0005
GW 3 6 2.250 -0.600 0.600 2.250 0.600 0.600 0.0005
GM 0 0 0 0 0 0 0 8.000
GE -1
GN 2 0 0 0 11.000 0.010 
EK
LD 5 0 0 0 58000000.000000 
LD 1 2 0 0 3.448276e-09 0 0.000000e+00
LD 1 3 0 0 3.448276e-09 0 0.000000e+00
EX 0 999 1 0 1 0
FR 0 1 0 0 14.000 0
RP 0 1 360 1000 45.00 0.00 0 1.00
EN